**   Template:  ABAQUS/STANDARD 3D
**
*NODE
         1,  5000.0         ,  5000.0         ,  0.0            
         2,  2500.0         ,  5000.0         ,  0.0            
         3,  0.0            ,  5000.0         ,  0.0            
         4,  0.0            ,  2500.0         ,  0.0            
         5,  0.0            ,  0.0            ,  0.0            
         6,  2500.0         ,  0.0            ,  0.0            
         7,  5000.0         ,  0.0            ,  0.0            
         8,  5000.0         ,  2500.0         ,  0.0            
         9,  2500.0         ,  2500.0         ,  0.0            
        10,  0.0            ,  0.0            ,  -833.3333333333
        11,  2500.0         ,  0.0            ,  -833.3333333333
        12,  2500.0         ,  2500.0         ,  -833.3333333333
        13,  0.0            ,  2500.0         ,  -833.3333333333
        14,  0.0            ,  0.0            ,  -1666.666666667
        15,  2500.0         ,  0.0            ,  -1666.666666667
        16,  2500.0         ,  2500.0         ,  -1666.666666667
        17,  0.0            ,  2500.0         ,  -1666.666666667
        18,  0.0            ,  0.0            ,  -2500.0        
        19,  2500.0         ,  0.0            ,  -2500.0        
        20,  2500.0         ,  2500.0         ,  -2500.0        
** ... 43 like lines cut
*ELEMENT,TYPE=C3D8R,ELSET=Top
         1,         5,         4,         9,         6,        10,        13,        12,
        11
         2,        10,        13,        12,        11,        14,        17,        16,
        15
         3,         4,         3,         2,         9,        13,        35,        34,
        12
         4,        13,        35,        34,        12,        17,        37,        36,
        16
         5,         9,         2,         1,         8,        12,        34,        47,
        46
         6,        12,        34,        47,        46,        16,        36,        49,
        48
         7,         6,         9,         8,         7,        11,        12,        46,
        58
         8,        11,        12,        46,        58,        15,        16,        48,
        59
*ELEMENT,TYPE=C3D8R,ELSET=Middle
         9,        18,        21,        20,        19,        22,        25,        24,
        23
        10,        21,        39,        38,        20,        25,        41,        40,
        24
        11,        20,        38,        51,        50,        24,        40,        53,
        52
        12,        19,        20,        50,        60,        23,        24,        52,
        61
        13,        14,        17,        16,        15,        18,        21,        20,
        19
        14,        17,        37,        36,        16,        21,        39,        38,
        20
        15,        16,        36,        49,        48,        20,        38,        51,
        50
        16,        15,        16,        48,        59,        19,        20,        50,
        60
*ELEMENT,TYPE=C3D8R,ELSET=Bottom
        17,        26,        29,        28,        27,        30,        33,        32,
        31
        18,        29,        43,        42,        28,        33,        45,        44,
        32
        19,        28,        42,        55,        54,        32,        44,        57,
        56
        20,        27,        28,        54,        62,        31,        32,        56,
        63
        21,        22,        25,        24,        23,        26,        29,        28,
        27
        22,        25,        41,        40,        24,        29,        43,        42,
        28
        23,        24,        40,        53,        52,        28,        42,        55,
        54
        24,        23,        24,        52,        61,        27,        28,        54,
        62
*NSET, NSET=Bottom
        30,        31,        32,        33,        44,        45,        56,        57,
        63,
*NSET, NSET=West
         1,         7,         8,        46,        47,        48,        49,        50,
        51,        52,        53,        54,        55,        56,        57,        58,
        59,        60,        61,        62,        63
*NSET, NSET=North
         1,         2,         3,        34,        35,        36,        37,        38,
        39,        40,        41,        42,        43,        44,        45,        47,
        49,        51,        53,        55,        57
*NSET, NSET=South
         5,         6,         7,        10,        11,        14,        15,        18,
        19,        22,        23,        26,        27,        30,        31,        58,
        59,        60,        61,        62,        63
*NSET, NSET=East
         3,         4,         5,        10,        13,        14,        17,        18,
        21,        22,        25,        26,        29,        30,        33,        35,
        37,        39,        41,        43,        45
**
*MATERIAL, NAME=Mat-Crust
*ELASTIC, TYPE = ISOTROPIC
45E9   ,0.24       ,0.0
*DENSITY
2850
**
*MATERIAL, NAME=Mat-Tertiary
*ELASTIC, TYPE = ISOTROPIC
35E9   ,0.21       ,0.0
*DENSITY
2625
**
*MATERIAL, NAME=Mat-Sediments
*ELASTIC, TYPE = ISOTROPIC
25E9   ,0.25       ,0.0
*DENSITY
2500
**
**
*SOLIDSECTION,ELSET=Top,MATERIAL=Mat-Sediments
*SOLIDSECTION,ELSET=Middle,MATERIAL=Mat-Tertiary
*SOLIDSECTION,ELSET=Bottom,MATERIAL=Mat-Crust
**
*INITIAL CONDITIONS, TYPE=STRESS, FILE=initial, STEP=1, INC=1
**
*STEP
*STATIC
*DLOAD
,GRAV,9.81,0,0,-1
*BOUNDARY
	   West, 1, , 14.07
	   South, 2, , 5.11
	   East, 1, , 0.0
	   North, 2, , 0.0
	   Bottom, 3
**
*OUTPUT, FIELD
*ELEMENT OUTPUT
S
*NODE OUTPUT
COORD, U
**
*END STEP
*****
